349

Au         9.70514       12.78784        6.90648
Ag        12.29611       13.67123        7.15460
Ag        11.45400       11.29013        8.45777
Ag        10.02422       15.52387        6.98295
Ag        10.49079       13.82925        9.33207
Ag         7.99986       14.36310        5.36855
Ag         7.10006       11.91495        6.72039
Ag         9.37307       10.03476        6.76370
Ag         8.57507       11.58082        9.10695
Ag        10.74240       14.02964        4.67553
Ag         9.00008       11.68773        4.48329
Ag         7.73798       14.15670        8.31847
Ag        11.60886       11.29371        5.54101
Ag         8.49816       14.05924       11.38041
Ag        13.02460       16.08341        5.70464
Ag         6.99007        8.84942        8.05965
Ag         8.43609       13.68772        2.38790
Ag        14.29883       11.43523        6.71771
Ag        11.79756       16.61512        9.02005
Ag         6.45337        9.75401        4.96536
Ag        11.56344       12.14448        2.64270
Ag         5.16539       14.28367        6.17762
Ag         7.22233       16.82751        7.35138
Ag        12.23912        8.67382        7.29978
Ag        10.35282       10.94047       11.29298
S          5.00056       16.66673        6.48456
C          4.00201       17.01169        7.90618
C          2.64244       16.60868        7.89816
C          1.86171       16.93879        9.01310
H          0.95489       16.65888        9.03449
C          2.35058       17.63878       10.06387
C          3.63407       18.05854       10.04783
H          3.98698       18.54628       10.78310
C          4.42609       17.77540        8.96764
H          5.30915       18.12316        8.95160
C          2.03186       15.74702        6.79926
H          2.09557       16.21829        5.94367
H          1.09179       15.57036        7.00781
H          2.51843       14.89816        6.74311
C          1.46945       17.91551       11.29913
H          0.53005       17.96188       11.02641
H          1.73557       18.76593       11.70553
H          1.58732       17.19239       11.95151
S         14.72554       13.80252        6.61665
C         15.52720       14.22527        8.15751
C         16.93271       14.13178        8.25376
C         17.54142       14.56795        9.39811
H         18.48670       14.51103        9.45693
C         16.84972       15.08673       10.46760
C         15.47750       15.16405       10.35798
H         14.96725       15.51436       11.07988
C         14.83530       14.73925        9.21363
H         13.88934       14.80529        9.16015
C         17.75194       13.52488        7.14150
H         17.44806       12.60764        6.97305
H         18.69591       13.51349        7.40085
H         17.64367       14.05792        6.32601
C         17.53545       15.59335       11.72157
H         17.39231       14.95417       12.45150
H         17.16092       16.46364       11.97023
H         18.49638       15.68591       11.55313
S          6.55310       14.83245        3.39428
C          6.71488       16.53504        2.94644
C          6.20737       16.99839        1.72187
C          6.31672       18.36203        1.44113
H          5.96719       18.67600        0.61496
C          6.90165       19.28055        2.28068
C          7.37099       18.81310        3.48118
H          7.75284       19.42191        4.10416
C          7.30180       17.46577        3.80203
H          7.66205       17.16867        4.63088
C          5.50414       16.09573        0.75666
H          6.10357       15.36445        0.49731
H          5.24715       16.60480       -0.04011
H          4.70116       15.72688        1.17911
C          6.98535       20.74420        1.91973
H          7.13775       20.83429        0.95452
H          7.72765       21.15927        2.40635
H          6.14563       21.18891        2.15769
S          7.96486        9.45176       10.18178
C          6.58068        9.74187       11.24832
C          5.92429        8.67177       11.84724
C          4.92738        8.97152       12.76165
H          4.49581        8.24733       13.20014
C          4.52675       10.22976       13.07447
C          5.14515       11.28059       12.45150
H          4.87551       12.17110       12.65203
C          6.16221       11.05698       11.53174
H          6.57604       11.79064       11.09325
C          6.33286        7.27550       11.58789
H          6.54598        7.16957       10.63604
H          5.59939        6.67234       11.82852
H          7.12279        7.06202       12.12530
C          3.43177       10.49391       14.06910
H          2.57074       10.54177       13.60120
H          3.60277       11.34495       14.52363
H          3.40659        9.77044       14.72683
S         12.11674        9.67932       10.22456
C         13.65048       10.27625       10.93015
C         14.09390        9.73249       12.13867
C         15.32842       10.18497       12.60390
H         15.64472        9.85170       13.43543
C         16.11952       11.09362       11.92478
C         15.64536       11.58072       10.71358
H         16.16855       12.19030       10.20290
C         14.42854       11.18213       10.26440
H         14.10296       11.54827        9.45159
C         13.30785        8.77701       12.92475
H         12.38095        9.08917       12.98892
H         13.68911        8.70251       13.82579
H         13.32989        7.90010       12.48893
C         17.44612       11.54028       12.47824
H         17.41318       11.52302       13.45949
H         17.63506       12.45270       12.17343
H         18.15072       10.93775       12.16274
S         12.60775       15.12600        3.50524
C         11.92192       16.44042        2.51329
C         12.83118       17.26139        1.84219
C         12.29486       18.27138        1.00532
H         12.89569       18.83492        0.53207
C         10.91575       18.47519        0.84489
C         10.08499       17.64369        1.53204
H          9.14723       17.75594        1.43846
C         10.55271       16.64181        2.36089
H          9.93807       16.08827        2.82612
C         14.31050       17.10216        1.90101
H         14.62407       17.30599        2.80473
H         14.72986       17.71641        1.26199
H         14.54953       16.17949        1.67107
C         10.39566       19.51336       -0.07486
H         10.81834       20.37338        0.12834
H          9.42356       19.59312        0.03743
H         10.59674       19.26169       -0.99997
S          9.38944       17.78552        7.78987
C          9.69720       18.90513        6.42761
C          9.15152       20.21102        6.53456
C          9.46589       21.08436        5.49984
H          9.10241       21.96169        5.52657
C         10.28560       20.74575        4.42767
C         10.80556       19.44373        4.37687
H         11.37190       19.17625        3.66299
C         10.48422       18.56528        5.37417
H         10.82570       17.67972        5.32872
C          8.31095       20.64133        7.68159
H          7.54182       20.04098        7.76447
H          7.99465       21.55698        7.52919
H          8.84112       20.61173        8.50509
C         10.63860       21.73660        3.36354
H          9.88672       22.35012        3.22450
H         10.83043       21.26313        2.52666
H         11.42984       22.24515        3.63893
S          6.92414       15.52321       10.21493
C          5.32229       14.91984       10.70021
C          4.80684       15.21101       11.94617
C          3.55647       14.69778       12.28840
H          3.20842       14.88530       13.15201
C          2.78830       13.92157       11.41677
C          3.30380       13.66640       10.17082
H          2.80359       13.16025        9.54249
C          4.55781       14.15104        9.83126
H          4.90981       13.94818        8.97032
C          5.54667       16.05565       12.90068
H          6.39213       15.61749       13.13864
H          5.00814       16.18435       13.70814
H          5.73490       16.92568       12.49160
C          1.48808       13.31141       11.84991
H          1.65787       12.43588       12.25632
H          0.90306       13.20351       11.07186
H          1.05711       13.89727       12.50497
S         13.59272       17.40623        7.64309
C         13.23682       19.13495        7.33935
C         13.83810       19.75001        6.25650
C         13.53353       21.09647        6.06399
H         13.92623       21.55602        5.32872
C         12.67408       21.79486        6.90888
C         12.13249       21.15848        7.97035
H         11.55244       21.63163        8.55322
C         12.40580       19.84449        8.21633
H         12.03663       19.41539        8.97834
C         14.71651       19.05562        5.26455
H         15.33751       18.46365        5.73780
H         15.22333       19.72014        4.75387
H         14.16295       18.52567        4.65227
C         12.31972       23.27178        6.66290
H         13.04864       23.70566        6.17361
H         12.18780       23.72472        7.52384
H         11.49480       23.32731        6.13618
S         13.33099       10.98695        3.78090
C         13.15340        9.35681        3.08547
C         13.82636        9.02264        1.91706
C         13.70931        7.71677        1.43579
H         14.18018        7.48074        0.64704
C         12.94263        6.75912        2.05341
C         12.24292        7.12902        3.16835
H         11.68503        6.49423        3.60150
C         12.33343        8.42348        3.67903
H         11.82616        8.66282        4.44639
C         14.70676        9.99761        1.23793
H         14.17018       10.75039        0.91174
H         15.15470        9.56243        0.48127
H         15.37916       10.32739        1.86893
C         12.82944        5.36226        1.48659
H         12.85585        5.40397        0.50801
H         11.98466        4.95864        1.77535
H         13.57855        4.81615        1.81011
S         10.74213       15.69397       10.99352
C         12.05482       15.19891       12.10124
C         12.52020       16.07161       13.06111
C         13.51346       15.65564       13.91135
H         13.83859       16.26630       14.56373
C         14.05917       14.39341       13.86055
C         13.56300       13.51555       12.89266
H         13.88886       12.62449       12.84453
C         12.62132       13.93998       12.02905
H         12.33320       13.35262       11.33923
C         11.94731       17.47457       13.21885
H         12.05953       17.96923       12.38198
H         12.41888       17.94046       13.94076
H         10.99329       17.41466       13.43810
C         15.14751       13.93630       14.81774
H         16.02447       14.05317       14.39529
H         15.01368       12.99163       15.03698
H         15.10580       14.47145       15.63857
S         10.01198        7.74231        7.43988
C          9.72865        6.66743        6.03458
C         10.16416        5.36269        6.08270
C          9.82639        4.52562        5.01322
H         10.08819        3.61359        5.05332
C          9.12773        4.96264        3.90095
C          8.75534        6.32779        3.88491
H          8.29901        6.67714        3.12558
C          9.03592        7.15300        4.93301
H          8.75909        8.06191        4.91162
C         10.91529        4.80641        7.25112
H         11.82699        5.16620        7.25379
H         10.95174        3.82942        7.18428
H         10.46116        5.06046        8.08264
C          8.83381        4.03441        2.74858
H          9.35429        4.31146        1.96518
H          7.87786        4.07123        2.53468
H          9.07858        3.11828        2.99456
S          7.26784       10.84345        2.96515
C          7.94220        9.47065        2.01866
C          7.03010        8.56228        1.42777
C          7.59141        7.57824        0.63367
H          6.99981        6.94861        0.24063
C          8.91981        7.43860        0.36630
C          9.76354        8.31213        0.99730
H         10.70120        8.21999        0.87163
C          9.29571        9.31630        1.80208
H          9.90886        9.91249        2.21384
C          5.54527        8.62993        1.69514
H          5.37376        8.44823        2.64163
H          5.08336        7.96124        1.14702
H          5.21230        9.52398        1.46787
C          9.47987        6.39812       -0.57752
H          9.30560        5.50302       -0.21925
H         10.44539        6.52950       -0.67378
H          9.04941        6.48998       -1.45450
S          4.75833       11.92011        5.87683
C          3.74055       11.35842        7.21369
C          2.35965       11.33607        7.06396
C          1.59905       10.80411        8.09334
H          0.65481       10.78996        7.99174
C          2.13469       10.29123        9.26443
C          3.52448       10.33080        9.41148
H          3.92767        9.99828       10.20290
C          4.30291       10.84964        8.40884
H          5.24555       10.86894        8.51846
C          1.70195       11.82516        5.79394
H          1.87825       12.78363        5.68165
H          0.73493       11.67575        5.84742
H          2.06730       11.33574        5.02659
C          1.30724        9.65912       10.34728
H          0.40858       10.05354       10.34193
H          1.73054        9.81976       11.21624
H          1.24206        8.69587       10.18686
S          9.03792       12.21785       12.83972
C         10.19921       12.59676       14.15733
C         10.11504       13.76619       14.89795
C         11.01739       13.90072       15.96209
H         10.99992       14.70898       16.46207
C         11.91508       12.94446       16.32839
C         11.94629       11.82447       15.58509
H         12.56734       11.14605       15.81771
C         11.12133       11.61521       14.50491
H         11.17833       10.80884       14.00493
C          9.15147       14.84520       14.56641
H          9.28486       15.12625       13.63595
H          9.29886       15.60923       15.16265
H          8.23810       14.51383       14.67870
C         12.82238       13.16681       17.52621
H         13.04012       14.11864       17.60108
H         13.64812       12.65148       17.41124
H         12.36310       12.87060       18.34170
S          5.89423        7.77657        6.22067
C          4.10669        7.85839        6.41959
C          3.48984        7.28567        7.52116
C          2.07877        7.25620        7.53721
H          1.64060        6.87327        8.28852
C          1.31403        7.75922        6.51585
C          1.95645        8.30330        5.44636
H          1.44551        8.65931        4.72980
C          3.33184        8.35110        5.38219
H          3.75365        8.72543        4.61751
C          4.24362        6.75226        8.71632
H          4.94574        6.14334        8.41151
H          3.62473        6.27209        9.30453
H          4.64692        7.49871        9.20561
C         -0.17814        7.72909        6.62814
H         -0.44041        7.10991        7.34202
H         -0.56289        7.42701        5.77790
H         -0.50895        8.62682        6.83402
S         10.06613       12.74937        0.89142
C         11.01694       13.96539        0.02139
C         10.41593       14.97556       -0.70319
C         11.23739       15.85980       -1.41440
H         10.84698       16.58266       -1.89032
C         12.59397       15.69775       -1.42777
C         13.20187       14.66864       -0.70319
H         14.14716       14.58801       -0.68715
C         12.44382       13.81048       -0.04278
H         12.85258       13.07285        0.39838
C          8.97472       15.18621       -0.70854
H          8.52799       14.37337       -1.02403
H          8.75560       15.93215       -1.30477
H          8.67337       15.39347        0.20053
C         13.47025       16.71139       -2.17640
H         13.66670       16.37270       -3.07477
H         14.30783       16.84400       -1.68711
H         12.99419       17.56474       -2.24592
S         14.60590        9.11262        7.19604
C         15.32867        8.51409        5.69769
C         15.12721        7.18196        5.26990
C         15.78599        6.76871        4.12287
H         15.63457        5.88353        3.81272
C         16.65273        7.57545        3.40899
C         16.84754        8.84400        3.85283
H         17.45260        9.40530        3.38493
C         16.19538        9.34463        4.96777
H         16.33438       10.24571        5.23781
C         14.19753        6.27961        5.99715
H         14.46403        6.22331        6.93829
H         14.22880        5.38544        5.59342
H         13.28641        6.63416        5.93565
C         17.36129        7.06005        2.14432
H         17.50115        6.09250        2.22186
H         18.22819        7.50765        2.05074
H         16.80671        7.25013        1.35825
