349
cpj01_sq
Ag      9.705141   12.787837    6.906477
Ag     12.296110   13.671229    7.154598
Ag     11.453995   11.290125    8.457767
Ag     10.024218   15.523871    6.982945
Ag     10.490787   13.829248    9.332073
Ag      7.999862   14.363103    5.368555
Ag      7.100058   11.914948    6.720386
Ag      9.373065   10.034761    6.763701
Ag      8.575065   11.580816    9.106946
Ag     10.742402   14.029642    4.675528
Ag      9.000076   11.687725    4.483288
Ag      7.737976   14.156697    8.318467
Ag     11.608858   11.293713    5.541010
Ag      8.498164   14.059240   11.380407
Ag     13.024605   16.083409    5.704641
Ag      6.990074    8.849420    8.059651
Ag      8.436093   13.687715    2.387896
Ag     14.298828   11.435228    6.717713
Ag     11.797560   16.615118    9.020050
Ag      6.453369    9.754013    4.965359
Ag     11.563435   12.144475    2.642701
Ag      5.165392   14.283673    6.177622
Ag      7.222328   16.827513    7.351383
Ag     12.239116    8.673821    7.299781
Ag     10.352825   10.940466   11.292976
S       5.000556   16.666726    6.484565
C       4.002007   17.011692    7.906180
C       2.642442   16.608676    7.898158
C       1.861712   16.938791    9.013098
H       0.954887   16.658879    9.034488
C       2.350577   17.638784   10.063869
C       3.634070   18.058542   10.047826
H       3.986982   18.546281   10.783098
C       4.426086   17.775397    8.967645
H       5.309148   18.123161    8.951603
C       2.031863   15.747024    6.799261
H       2.095568   16.218285    5.943672
H       1.091786   15.570356    7.007811
H       2.518431   14.898163    6.743113
C       1.469447   17.915505   11.299126
H       0.530047   17.961885   11.026407
H       1.735572   18.765927   11.705531
H       1.587319   17.192386   11.951513
S      14.725540   13.802524    6.616646
C      15.527203   14.225272    8.157509
C      16.932714   14.131782    8.253763
C      17.541415   14.567950    9.398113
H      18.486704   14.511028    9.456935
C      16.849721   15.086727   10.467600
C      15.477497   15.164046   10.357978
H      14.967245   15.514362   11.079881
C      14.835301   14.739245    9.213627
H      13.889343   14.805288    9.160153
C      17.751945   13.524883    7.141497
H      17.448060   12.607636    6.973053
H      18.695908   13.513486    7.400847
H      17.643668   14.057918    6.326013
C      17.535446   15.593353   11.721573
H      17.392312   14.954173   12.451498
H      17.160916   16.463637   11.970229
H      18.496378   15.685913   11.553129
S       6.553101   14.832447    3.394283
C       6.714884   16.535041    2.946436
C       6.207370   16.998394    1.721873
C       6.316718   18.362032    1.441133
H       5.967191   18.676000    0.614955
C       6.901651   19.280551    2.280680
C       7.370991   18.813098    3.481179
H       7.752839   19.421908    4.104155
C       7.301802   17.465765    3.802025
H       7.662049   17.168671    4.630877
C       5.504136   16.095730    0.756662
H       6.103568   15.364454    0.497311
H       5.247152   16.604798   -0.040106
H       4.701163   15.726884    1.179109
C       6.985347   20.744199    1.919728
H       7.137746   20.834292    0.954517
H       7.727653   21.159271    2.406345
H       6.145634   21.188909    2.157689
S       7.964862    9.451762   10.181780
C       6.580680    9.741867   11.248325
C       5.924287    8.671774   11.847238
C       4.927381    8.971520   12.761649
H       4.495807    8.247333   13.200138
C       4.526750   10.229756   13.074473
C       5.145148   11.280593   12.451498
H       4.875511   12.171098   12.652026
C       6.162208   11.056982   11.531739
H       6.576036   11.790642   11.093250
C       6.332855    7.275502   11.587887
H       6.545983    7.169574   10.636044
H       5.599391    6.672336   11.828522
H       7.122785    7.062018   12.125304
C       3.431774   10.493906   14.069096
H       2.570741   10.541773   13.601196
H       3.602767   11.344947   14.523628
H       3.406589    9.770435   14.726830
S      12.116742    9.679324   10.224559
C      13.650475   10.276252   10.930153
C      14.093902    9.732488   12.138673
C      15.328415   10.184965   12.603899
H      15.644725    9.851698   13.435425
C      16.119524   11.093618   11.924775
C      15.645355   11.580720   10.713582
H      16.168548   12.190304   10.202902
C      14.428537   11.182130   10.264397
H      14.102964   11.548266    9.451588
C      13.307852    8.777005   12.924745
H      12.380951    9.089173   12.988915
H      13.689105    8.702506   13.825788
H      13.329887    7.900101   12.488930
C      17.446123   11.540283   12.478235
H      17.413184   11.523022   13.459489
H      17.635063   12.452702   12.173431
H      18.150720   10.937747   12.162736
S      12.607746   15.125998    3.505242
C      11.921916   16.440420    2.513293
C      12.831176   17.261394    1.842191
C      12.294860   18.271376    1.005317
H      12.895690   18.834920    0.532070
C      10.915746   18.475188    0.844894
C      10.084994   17.643685    1.532040
H       9.147225   17.755944    1.438459
C      10.552712   16.641809    2.360892
H       9.938070   16.088267    2.826118
C      14.310498   17.102165    1.901012
H      14.624075   17.305993    2.804729
H      14.729862   17.716412    1.261994
H      14.549526   16.179495    1.671073
C      10.395657   19.513364   -0.074864
H      10.818340   20.373380    0.128338
H       9.423564   19.593119    0.037432
H      10.596743   19.261687   -0.999970
S       9.389437   17.785518    7.789873
C       9.697201   18.905127    6.427614
C       9.151519   20.211023    6.534563
C       9.465886   21.084365    5.499835
H       9.102406   21.961686    5.526572
C      10.285597   20.745749    4.427674
C      10.805563   19.443733    4.376874
H      11.371898   19.176250    3.662992
C      10.484223   18.565279    5.374170
H      10.825698   17.679717    5.328717
C       8.310953   20.641332    7.681587
H       7.541822   20.040977    7.764473
H       7.994649   21.556976    7.529186
H       8.841118   20.611725    8.505092
C      10.638595   21.736596    3.363535
H       9.886721   22.350122    3.224502
H      10.830427   21.263126    2.526662
H      11.429838   22.245151    3.638928
S       6.924142   15.523205   10.214934
C       5.322289   14.919841   10.700213
C       4.806837   15.211014   11.946165
C       3.556467   14.697779   12.288401
H       3.208418   14.885302   13.152011
C       2.788301   13.921572   11.416769
C       3.303804   13.666396   10.170817
H       2.803585   13.160245    9.542494
C       4.557805   14.151036    9.831255
H       4.909807   13.948180    8.970319
C       5.546671   16.055651   12.900682
H       6.392128   15.617488   13.138643
H       5.008141   16.184350   13.708144
H       5.734901   16.925678   12.491603
C       1.488077   13.311411   11.849911
H       1.657870   12.435876   12.256316
H       0.903061   13.203509   11.071860
H       1.057113   13.897268   12.504972
S      13.592721   17.406229    7.643086
C      13.236824   19.134950    7.339352
C      13.838100   19.750009    6.256496
C      13.533534   21.096468    6.063989
H      13.926226   21.556016    5.328717
C      12.674077   21.794864    6.908883
C      12.132487   21.158479    7.970349
H      11.552444   21.631626    8.553219
C      12.405799   19.844495    8.216331
H      12.036630   19.415394    8.978340
C      14.716515   19.055615    5.264548
H      15.337510   18.463653    5.737796
H      15.223331   19.720141    4.753868
H      14.162947   18.525673    4.652267
C      12.319723   23.271782    6.662901
H      13.048636   23.705656    6.173611
H      12.187803   23.724721    7.523838
H      11.494797   23.327312    6.136179
S      13.330994   10.986954    3.780902
C      13.153397    9.356814    3.085469
C      13.826358    9.022643    1.917055
C      13.709307    7.716770    1.435786
H      14.180183    7.480741    0.647039
C      12.942627    6.759119    2.053414
C      12.242922    7.129020    3.168354
H      11.685032    6.494229    3.601496
C      12.333431    8.423483    3.679034
H      11.826157    8.662815    4.446390
C      14.706757    9.997606    1.237931
H      14.170179   10.750395    0.911737
H      15.154701    9.562429    0.481269
H      15.379162   10.327385    1.868928
C      12.829435    5.362257    1.486586
H      12.855846    5.403972    0.508006
H      11.984663    4.958641    1.775348
H      13.578548    4.816153    1.810106
S      10.742130   15.693971   10.993520
C      12.054817   15.198906   12.101241
C      12.520197   16.071609   13.061105
C      13.513464   15.655643   13.911347
H      13.838589   16.266305   14.563734
C      14.059171   14.393413   13.860546
C      13.563000   13.515554   12.892661
H      13.888855   12.624485   12.844534
C      12.621316   13.939979   12.029050
H      12.333204   13.352623   11.339231
C      11.947305   17.474572   13.218854
H      12.059525   17.969230   12.381981
H      12.418879   17.940458   13.940758
H      10.993285   17.414663   13.438099
C      15.147505   13.936301   14.817737
H      16.024473   14.053168   14.395289
H      15.013677   12.991626   15.036981
H      15.105797   14.471454   15.638568
S      10.011982    7.742315    7.439883
C       9.728654    6.667432    6.034578
C      10.164163    5.362689    6.082705
C       9.826388    4.525624    5.013218
H      10.088187    3.613587    5.053324
C       9.127730    4.962636    3.900952
C       8.755338    6.327787    3.884910
H       8.299010    6.677139    3.125575
C       9.035924    7.152998    4.933007
H       8.759092    8.061908    4.911617
C      10.915293    4.806410    7.251119
H      11.826988    5.166203    7.253793
H      10.951744    3.829423    7.184276
H      10.461161    5.060462    8.082645
C       8.833807    4.034407    2.748581
H       9.354285    4.311456    1.965182
H       7.877863    4.071229    2.534683
H       9.078580    3.118284    2.994562
S       7.267841   10.843454    2.965152
C       7.942203    9.470650    2.018656
C       7.030095    8.562278    1.427765
C       7.591406    7.578245    0.633671
H       6.999808    6.948608    0.240634
C       8.919808    7.438604    0.366299
C       9.763543    8.312127    0.997296
H      10.701203    8.219990    0.871632
C       9.295712    9.316296    1.802085
H       9.908856    9.912493    2.213837
C       5.545272    8.629925    1.695136
H       5.373760    8.448231    2.641632
H       5.083359    7.961242    1.147024
H       5.212296    9.523975    1.467870
C       9.479865    6.398122   -0.577523
H       9.305602    5.503022   -0.219245
H      10.445392    6.529503   -0.673777
H       9.049414    6.489982   -1.454502
S       4.758332   11.920109    5.876829
C       3.740545   11.358420    7.213687
C       2.359650   11.336073    7.063959
C       1.599055   10.804107    8.093340
H       0.654807   10.789958    7.991738
C       2.134690   10.291227    9.264427
C       3.524478   10.330801    9.411482
H       3.927675    9.998281   10.202902
C       4.302915   10.849639    8.408838
H       5.245546   10.868943    8.518461
C       1.701949   11.825155    5.793944
H       1.878246   12.783627    5.681647
H       0.734928   11.675751    5.847418
H       2.067301   11.335739    5.026587
C       1.307237    9.659117   10.347283
H       0.408579   10.053540   10.341935
H       1.730536    9.819763   11.216241
H       1.242062    8.695871   10.186860
S       9.037916   12.217847   12.839721
C      10.199206   12.596756   14.157329
C      10.115037   13.766190   14.897948
C      11.017387   13.900720   15.962087
H      10.999917   14.708983   16.462072
C      11.915085   12.944465   16.328386
C      11.946286   11.824466   15.585093
H      12.567342   11.146045   15.817707
C      11.121328   11.615210   14.504912
H      11.178332   10.808842   14.004927
C       9.151475   14.845198   14.566407
H       9.284860   15.126248   13.635954
H       9.298858   15.609230   15.162646
H       8.238103   14.513830   14.678703
C      12.822384   13.166814   17.526211
H      13.040124   14.118644   17.601075
H      13.648122   12.651483   17.411242
H      12.363105   12.870601   18.341695
S       5.894232    7.776574    6.220669
C       4.106691    7.858391    6.419593
C       3.489843    7.285674    7.521164
C       2.078770    7.256199    7.537207
H       1.640595    6.873273    8.288521
C       1.314032    7.759218    6.515847
C       1.956447    8.303298    5.446360
H       1.445510    8.659306    4.729804
C       3.331843    8.351099    5.382191
H       3.753650    8.725433    4.617508
C       4.243616    6.752264    8.716316
H       4.945737    6.143339    8.411512
H       3.624731    6.272088    9.304533
H       4.646918    7.498709    9.205606
C      -0.178144    7.729087    6.628143
H      -0.440407    7.109909    7.342025
H      -0.562891    7.427009    5.777901
H      -0.508954    8.626819    6.834019
S      10.066126   12.749373    0.891417
C      11.016937   13.965394    0.021390
C      10.415935   14.975559   -0.703187
C      11.237388   15.859801   -1.414396
H      10.846983   16.582665   -1.890318
C      12.593972   15.697748   -1.427765
C      13.201871   14.668638   -0.703187
H      14.147163   14.588009   -0.687145
C      12.443821   13.810476   -0.042779
H      12.852584   13.072850    0.398384
C       8.974716   15.186209   -0.708535
H       8.527990   14.373375   -1.024033
H       8.755604   15.932153   -1.304774
H       8.673373   15.393473    0.200529
C      13.470246   16.711392   -2.176405
H      13.666697   16.372698   -3.074774
H      14.307834   16.843995   -1.687115
H      12.994190   17.564739   -2.245922
S      14.605904    9.112616    7.196040
C      15.328673    8.514094    5.697690
C      15.127209    7.181964    5.269895
C      15.785994    6.768707    4.122871
H      15.634570    5.883527    3.812720
C      16.652730    7.575448    3.408988
C      16.847544    8.844000    3.852825
H      17.452605    9.405297    3.384925
C      16.195380    9.344626    4.967765
H      16.334383   10.245710    5.237811
C      14.197532    6.279614    5.997146
H      14.464031    6.223314    6.938294
H      14.228795    5.385441    5.593415
H      13.286412    6.634161    5.935651
C      17.361289    7.060053    2.144321
H      17.501148    6.092502    2.221858
H      18.228191    7.507652    2.050741
H      16.806710    7.250127    1.358248
